<?xml version="1.0" encoding="UTF-8"?>

<!-- generated on 2025-06-10 20:16:58 by Eclipse SUMO netedit Version 1.23.1
<neteditConfiguration xmlns:xsi="http://www.w3.org/2001/XMLSchema-instance" xsi:noNamespaceSchemaLocation="http://sumo.dlr.de/xsd/neteditConfiguration.xsd">

    <input>
        <sumo-net-file value="D:\SUMO Exploration\circles.net.xml"/>
    </input>

    <output>
        <output-file value="D:\SUMO Exploration\circles.net.xml"/>
    </output>

    <processing>
        <offset.disable-normalization value="true"/>
    </processing>

    <junctions>
        <no-turnarounds value="true"/>
    </junctions>

    <netedit>
        <new-network value="false"/>
    </netedit>

</neteditConfiguration>
-->

<net version="1.20" junctionCornerDetail="5" limitTurnSpeed="5.50" xmlns:xsi="http://www.w3.org/2001/XMLSchema-instance" xsi:noNamespaceSchemaLocation="http://sumo.dlr.de/xsd/net_file.xsd">

    <location netOffset="0.00,0.00" convBoundary="46.89,-310.78,494.66,80.54" origBoundary="10000000000.00,10000000000.00,-10000000000.00,-10000000000.00" projParameter="!"/>

    <edge id=":J10_0" function="internal">
        <lane id=":J10_0_0" index="0" speed="13.89" length="0.57" shape="104.25,49.69 104.40,49.77 104.51,49.81 104.62,49.84 104.78,49.87"/>
    </edge>
    <edge id=":J11_0" function="internal">
        <lane id=":J11_0_0" index="0" speed="13.89" length="0.77" shape="291.81,78.83 292.04,78.87 292.19,78.87 292.35,78.84 292.57,78.77"/>
    </edge>
    <edge id=":J12_0" function="internal">
        <lane id=":J12_0_0" index="0" speed="4.03" length="1.66" shape="446.12,26.96 446.51,26.78 446.81,26.52 447.04,26.19 447.17,25.78"/>
    </edge>
    <edge id=":J13_0" function="internal">
        <lane id=":J13_0_0" index="0" speed="13.89" length="0.16" shape="477.20,-114.98 477.21,-115.03 477.22,-115.06 477.22,-115.09 477.23,-115.14"/>
    </edge>
    <edge id=":J14_0" function="internal">
        <lane id=":J14_0_0" index="0" speed="3.92" length="2.32" shape="492.76,-253.66 492.74,-254.28 492.54,-254.78 492.15,-255.15 491.57,-255.39"/>
    </edge>
    <edge id=":J15_0" function="internal">
        <lane id=":J15_0_0" index="0" speed="13.89" length="0.85" shape="285.79,-309.02 285.55,-309.07 285.37,-309.09 285.20,-309.07 284.96,-309.01"/>
    </edge>
    <edge id=":J16_0" function="internal">
        <lane id=":J16_0_0" index="0" speed="4.07" length="1.52" shape="116.76,-262.74 116.40,-262.60 116.10,-262.38 115.86,-262.10 115.69,-261.75"/>
    </edge>
    <edge id=":J17_0" function="internal">
        <lane id=":J17_0_0" index="0" speed="13.89" length="0.38" shape="61.21,-114.61 61.17,-114.50 61.15,-114.43 61.14,-114.35 61.12,-114.24"/>
    </edge>
    <edge id=":J18_0" function="internal">
        <lane id=":J18_0_0" index="0" speed="4.32" length="1.14" shape="48.62,-8.60 48.59,-8.26 48.61,-8.03 48.70,-7.81 48.88,-7.53"/>
    </edge>
    <edge id=":J19_0" function="internal">
        <lane id=":J19_0_0" index="0" speed="13.89" length="0.77" shape="76.34,33.97 76.47,34.16 76.57,34.28 76.70,34.37 76.89,34.49"/>
    </edge>

    <edge id="E11" from="J12" to="J13" priority="-1">
        <lane id="E11_0" index="0" speed="13.89" length="143.93" shape="447.17,25.78 477.20,-114.98"/>
    </edge>
    <edge id="E12" from="J13" to="J14" priority="-1">
        <lane id="E12_0" index="0" speed="13.89" length="139.39" shape="477.23,-115.14 492.76,-253.66"/>
    </edge>
    <edge id="E13" from="J14" to="J15" priority="-1">
        <lane id="E13_0" index="0" speed="13.89" length="212.66" shape="491.57,-255.39 285.79,-309.02"/>
    </edge>
    <edge id="E14" from="J15" to="J16" priority="-1">
        <lane id="E14_0" index="0" speed="13.89" length="174.45" shape="284.96,-309.01 116.76,-262.74"/>
    </edge>
    <edge id="E15" from="J16" to="J17" priority="-1">
        <lane id="E15_0" index="0" speed="13.89" length="156.91" shape="115.69,-261.75 61.21,-114.61"/>
    </edge>
    <edge id="E16" from="J17" to="J18" priority="-1">
        <lane id="E16_0" index="0" speed="13.89" length="106.38" shape="61.12,-114.24 48.62,-8.60"/>
    </edge>
    <edge id="E17" from="J18" to="J19" priority="-1">
        <lane id="E17_0" index="0" speed="13.89" length="49.76" shape="48.88,-7.53 76.34,33.97"/>
    </edge>
    <edge id="E18" from="J19" to="J10" priority="-1">
        <lane id="E18_0" index="0" speed="13.89" length="31.30" shape="76.89,34.49 104.25,49.69"/>
    </edge>
    <edge id="edge1" from="J11" to="J12" priority="-1">
        <lane id="edge1_0" index="0" speed="13.89" length="162.06" shape="292.57,78.77 446.12,26.96"/>
    </edge>
    <edge id="edge2" from="J10" to="J11" priority="-1">
        <lane id="edge2_0" index="0" speed="13.89" length="189.26" shape="104.78,49.87 291.81,78.83"/>
    </edge>

    <junction id="J10" type="priority" x="103.97" y="51.36" incLanes="E18_0" intLanes=":J10_0_0" shape="104.54,51.45 105.03,48.29 103.47,51.08 103.85,51.28 103.98,51.34 104.12,51.38 104.30,51.41">
        <request index="0" response="0" foes="0" cont="0"/>
    </junction>
    <junction id="J11" type="priority" x="292.34" y="80.54" incLanes="edge2_0" intLanes=":J11_0_0" shape="293.08,80.29 292.06,77.25 291.57,80.42 292.13,80.49 292.33,80.49 292.53,80.45 292.77,80.39">
        <request index="0" response="0" foes="0" cont="0"/>
    </junction>
    <junction id="J12" type="priority" x="448.36" y="27.90" incLanes="edge1_0" intLanes=":J12_0_0" shape="448.74,26.11 445.61,25.45 446.63,28.48 447.63,27.96 448.02,27.60 448.33,27.17 448.57,26.67">
        <request index="0" response="0" foes="0" cont="0"/>
    </junction>
    <junction id="J13" type="priority" x="478.80" y="-114.80" incLanes="E11_0" intLanes=":J13_0_0" shape="478.82,-114.96 475.64,-115.32 478.77,-114.65 478.80,-114.81">
        <request index="0" response="0" foes="0" cont="0"/>
    </junction>
    <junction id="J14" type="priority" x="494.66" y="-256.24" incLanes="E12_0" intLanes=":J14_0_0" shape="491.97,-256.94 491.17,-253.84 494.35,-253.48 494.22,-255.09 493.91,-255.72 493.43,-256.24 492.78,-256.65">
        <request index="0" response="0" foes="0" cont="0"/>
    </junction>
    <junction id="J15" type="priority" x="285.36" y="-310.78" incLanes="E13_0" intLanes=":J15_0_0" shape="285.38,-307.47 286.19,-310.56 285.58,-310.70 285.36,-310.72 285.14,-310.70 284.88,-310.64 284.54,-310.55">
        <request index="0" response="0" foes="0" cont="0"/>
    </junction>
    <junction id="J16" type="priority" x="114.76" y="-263.85" incLanes="E14_0" intLanes=":J16_0_0" shape="117.19,-261.20 116.34,-264.28 115.40,-263.87 115.01,-263.57 114.68,-263.21 114.40,-262.79 114.19,-262.31">
        <request index="0" response="0" foes="0" cont="0"/>
    </junction>
    <junction id="J17" type="priority" x="59.58" y="-114.80" incLanes="E15_0" intLanes=":J17_0_0" shape="62.71,-114.05 59.71,-115.16 59.62,-114.90 59.59,-114.80 59.57,-114.71 59.55,-114.59 59.53,-114.43">
        <request index="0" response="0" foes="0" cont="0"/>
    </junction>
    <junction id="J18" type="priority" x="46.89" y="-7.62" incLanes="E16_0" intLanes=":J18_0_0" shape="47.54,-6.64 50.21,-8.41 47.03,-8.79 46.97,-7.95 47.01,-7.65 47.11,-7.36 47.28,-7.05">
        <request index="0" response="0" foes="0" cont="0"/>
    </junction>
    <junction id="J19" type="priority" x="75.43" y="35.51" incLanes="E17_0" intLanes=":J19_0_0" shape="76.12,35.89 77.67,33.09 75.00,34.85 75.33,35.32 75.47,35.47 75.63,35.59 75.83,35.72">
        <request index="0" response="0" foes="0" cont="0"/>
    </junction>

    <connection from="E11" to="E12" fromLane="0" toLane="0" via=":J13_0_0" dir="s" state="M"/>
    <connection from="E12" to="E13" fromLane="0" toLane="0" via=":J14_0_0" dir="r" state="M"/>
    <connection from="E13" to="E14" fromLane="0" toLane="0" via=":J15_0_0" dir="s" state="M"/>
    <connection from="E14" to="E15" fromLane="0" toLane="0" via=":J16_0_0" dir="r" state="M"/>
    <connection from="E15" to="E16" fromLane="0" toLane="0" via=":J17_0_0" dir="s" state="M"/>
    <connection from="E16" to="E17" fromLane="0" toLane="0" via=":J18_0_0" dir="s" state="M"/>
    <connection from="E17" to="E18" fromLane="0" toLane="0" via=":J19_0_0" dir="s" state="M"/>
    <connection from="E18" to="edge2" fromLane="0" toLane="0" via=":J10_0_0" dir="s" state="M"/>
    <connection from="edge1" to="E11" fromLane="0" toLane="0" via=":J12_0_0" dir="r" state="M"/>
    <connection from="edge2" to="edge1" fromLane="0" toLane="0" via=":J11_0_0" dir="s" state="M"/>

    <connection from=":J10_0" to="edge2" fromLane="0" toLane="0" dir="s" state="M"/>
    <connection from=":J11_0" to="edge1" fromLane="0" toLane="0" dir="s" state="M"/>
    <connection from=":J12_0" to="E11" fromLane="0" toLane="0" dir="r" state="M"/>
    <connection from=":J13_0" to="E12" fromLane="0" toLane="0" dir="s" state="M"/>
    <connection from=":J14_0" to="E13" fromLane="0" toLane="0" dir="r" state="M"/>
    <connection from=":J15_0" to="E14" fromLane="0" toLane="0" dir="s" state="M"/>
    <connection from=":J16_0" to="E15" fromLane="0" toLane="0" dir="r" state="M"/>
    <connection from=":J17_0" to="E16" fromLane="0" toLane="0" dir="s" state="M"/>
    <connection from=":J18_0" to="E17" fromLane="0" toLane="0" dir="s" state="M"/>
    <connection from=":J19_0" to="E18" fromLane="0" toLane="0" dir="s" state="M"/>

</net>
