<?xml version="1.0" encoding="UTF-8"?>

<!-- generated on 2025-06-11 12:55:57 by Eclipse SUMO netedit Version 1.23.1
-->

<routes xmlns:xsi="http://www.w3.org/2001/XMLSchema-instance" xsi:noNamespaceSchemaLocation="http://sumo.dlr.de/xsd/routes_file.xsd">
    <!-- VTypes -->
    <vType id="Bus" maxSpeed="30.00" vClass="bus" emissionClass="HBEFA3/Bus"/>
    <vType id="DEFAULT_VEHTYPE" vClass="bus"/>
    <vType id="bike" vClass="bicycle"/>
    <vType id="pkw"/>
    <vType id="tren" maxSpeed="35.00" vClass="rail_urban"/>
    <!-- Vehicles, persons and containers (sorted by depart) -->
    <flow id="bike1" type="bike" begin="0.00" from="E0" to="E0.206" end="3600.00" vehsPerHour="250"/>
    <flow id="car" type="pkw" begin="0.00" from="E0" to="E0.206" end="3600.00" vehsPerHour="150"/>
    <flow id="f_0" type="Bus" begin="0.00" from="E0" to="E0.206" end="3600.00" vehsPerHour="100"/>
    <flow id="tran" type="tren" begin="0.00" from="E0" to="E0.206" end="3600.00" vehsPerHour="15"/>
    <personFlow id="pf_0" begin="0.00" end="3600.00" personsPerHour="3600">
        <personTrip from="E0" to="E0.206"/>
    </personFlow>
</routes>
