<?xml version="1.0" encoding="UTF-8"?>

<!-- generated on 2025-07-25 16:43:25 by Eclipse SUMO netedit Version 1.23.1
-->

<routes xmlns:xsi="http://www.w3.org/2001/XMLSchema-instance" xsi:noNamespaceSchemaLocation="http://sumo.dlr.de/xsd/routes_file.xsd">
    <!-- VTypes -->
    <vType id="WELeft"/>
    <vType id="t_0"/>
    <!-- Vehicles, persons and containers (sorted by depart) -->
    <flow id="EWLeft" type="WELeft" begin="0.00" from="-E2" to="E4" end="3600.00" period="exp(0.25)"/>
    <flow id="EWThrough" type="WELeft" begin="0.00" from="-E2" to="-E1" end="3600.00" period="exp(0.25)"/>
    <flow id="NSLeft" type="WELeft" begin="0.00" from="E3" to="E2" end="3600.00" period="exp(0.1)"/>
    <flow id="NSThrough" type="WELeft" begin="0.00" from="E3" to="E4" end="3600.00" period="exp(0.1)"/>
    <flow id="SNLeft" type="WELeft" begin="0.00" from="-E4" to="-E1" end="3600.00" period="exp(0.1)"/>
    <flow id="SNThrough" type="WELeft" begin="0.00" from="-E4" to="-E3" end="3600.00" period="exp(0.1)"/>
    <flow id="WELeft" type="WELeft" begin="0.00" from="E1" to="-E3" end="3600.00" period="exp(0.25)"/>
    <flow id="WEThrough" type="WELeft" begin="0.00" from="E1" to="E2" end="3600.00" period="exp(0.25)"/>
</routes>
