<?xml version="1.0" encoding="UTF-8"?>

<!-- generated on 2025-08-08 17:22:32 by Eclipse SUMO netedit Version 1.23.1
-->

<routes xmlns:xsi="http://www.w3.org/2001/XMLSchema-instance" xsi:noNamespaceSchemaLocation="http://sumo.dlr.de/xsd/routes_file.xsd">
    <!-- VTypes -->
    <vType id="Car"/>
    <!-- Vehicles, persons and containers (sorted by depart) -->
    <flow id="EBLeft" type="Car" begin="0.00" departLane="2" arrivalLane="2" from="E0" to="-E2" end="900.00" period="exp(0.05)"/>
    <flow id="EBRight" type="Car" begin="0.00" departLane="0" arrivalLane="0" from="E0" to="E3" end="900.00" period="exp(0.05)"/>
    <flow id="EBThrough" type="Car" begin="0.00" departLane="1" arrivalLane="1" from="E0" to="E1" end="900.00" period="exp(0.05)"/>
    <flow id="NBLeft" type="Car" begin="0.00" departLane="2" arrivalLane="2" from="-E3" to="-E0" end="900.00" period="exp(0.05)"/>
    <flow id="NBRight" type="Car" begin="0.00" departLane="0" arrivalLane="0" from="-E3" to="E1" end="900.00" period="exp(0.05)"/>
    <flow id="NBThrough" type="Car" begin="0.00" departLane="1" arrivalLane="1" from="-E3" to="-E2" end="900.00" period="exp(0.05)"/>
    <flow id="SBRight" type="Car" begin="0.00" departLane="0" arrivalLane="0" from="E2" to="-E0" end="900.00" period="exp(0.05)"/>
    <flow id="SBThrough" type="Car" begin="0.00" departLane="1" arrivalLane="1" from="E2" to="E3" end="900.00" period="exp(0.05)"/>
    <flow id="f_0" type="Car" begin="0.00" departLane="0" arrivalLane="0" from="-E1" to="-E2" end="900.00" period="exp(0.05)"/>
    <flow id="f_1" type="Car" begin="0.00" departLane="1" arrivalLane="1" from="-E1" to="-E0" end="900.00" period="exp(0.05)"/>
    <flow id="f_2" type="Car" begin="0.00" departLane="2" arrivalLane="2" from="-E1" to="E3" end="900.00" period="exp(0.05)"/>
    <flow id="f_3" type="Car" begin="0.00" departLane="2" arrivalLane="2" from="E2" to="E1" end="900.00" period="exp(0.05)"/>
</routes>
