<?xml version="1.0" encoding="UTF-8"?>

<!-- generated on 2025-08-18 13:13:17 by Eclipse SUMO netedit Version 1.23.1
<neteditConfiguration xmlns:xsi="http://www.w3.org/2001/XMLSchema-instance" xsi:noNamespaceSchemaLocation="http://sumo.dlr.de/xsd/neteditConfiguration.xsd">

    <input>
        <sumo-net-file value="D:\SUMO Exploration\data\CompExp\SingleIntersectionActuatedDynamicSF.net.xml"/>
    </input>

    <output>
        <output-file value="D:\SUMO Exploration\data\CompExp\SingleIntersectionActuatedDynamicSF.net.xml"/>
    </output>

    <processing>
        <geometry.min-radius.fix.railways value="false"/>
        <geometry.avoid-overlap value="false"/>
        <geometry.max-grade.fix value="false"/>
        <offset.disable-normalization value="true"/>
        <lefthand value="0"/>
    </processing>

    <junctions>
        <no-turnarounds value="true"/>
        <junctions.corner-detail value="5"/>
        <junctions.limit-turn-speed value="5.50"/>
        <rectangular-lane-cut value="0"/>
    </junctions>

    <pedestrian>
        <walkingareas value="0"/>
    </pedestrian>

</neteditConfiguration>
-->

<net version="1.20" junctionCornerDetail="5" limitTurnSpeed="5.50" avoidOverlap="0" xmlns:xsi="http://www.w3.org/2001/XMLSchema-instance" xsi:noNamespaceSchemaLocation="http://sumo.dlr.de/xsd/net_file.xsd">

    <location netOffset="0.00,0.00" convBoundary="-200.00,-100.00,200.00,100.00" origBoundary="-10000000000.00,-10000000000.00,10000000000.00,10000000000.00" projParameter="!"/>

    <edge id=":Inter_0" function="internal">
        <lane id=":Inter_0_0" index="0" speed="6.51" length="9.03" shape="-8.00,13.60 -8.35,11.15 -9.40,9.40 -11.15,8.35 -13.60,8.00"/>
    </edge>
    <edge id=":Inter_1" function="internal">
        <lane id=":Inter_1_0" index="0" speed="13.89" length="27.20" shape="-4.80,13.60 -4.80,-13.60"/>
    </edge>
    <edge id=":Inter_2" function="internal">
        <lane id=":Inter_2_0" index="0" speed="10.36" length="24.51" shape="-1.60,13.60 -0.65,6.95 2.20,2.20 6.95,-0.65 13.60,-1.60"/>
    </edge>
    <edge id=":Inter_3" function="internal">
        <lane id=":Inter_3_0" index="0" speed="6.51" length="9.03" shape="13.60,8.00 11.15,8.35 9.40,9.40 8.35,11.15 8.00,13.60"/>
    </edge>
    <edge id=":Inter_4" function="internal">
        <lane id=":Inter_4_0" index="0" speed="13.89" length="27.20" shape="13.60,4.80 -13.60,4.80"/>
    </edge>
    <edge id=":Inter_5" function="internal">
        <lane id=":Inter_5_0" index="0" speed="10.36" length="24.51" shape="13.60,1.60 6.95,0.65 2.20,-2.20 -0.65,-6.95 -1.60,-13.60"/>
    </edge>
    <edge id=":Inter_6" function="internal">
        <lane id=":Inter_6_0" index="0" speed="6.51" length="9.03" shape="8.00,-13.60 8.35,-11.15 9.40,-9.40 11.15,-8.35 13.60,-8.00"/>
    </edge>
    <edge id=":Inter_7" function="internal">
        <lane id=":Inter_7_0" index="0" speed="13.89" length="27.20" shape="4.80,-13.60 4.80,13.60"/>
    </edge>
    <edge id=":Inter_8" function="internal">
        <lane id=":Inter_8_0" index="0" speed="10.36" length="24.51" shape="1.60,-13.60 0.65,-6.95 -2.20,-2.20 -6.95,0.65 -13.60,1.60"/>
    </edge>
    <edge id=":Inter_9" function="internal">
        <lane id=":Inter_9_0" index="0" speed="6.51" length="9.03" shape="-13.60,-8.00 -11.15,-8.35 -9.40,-9.40 -8.35,-11.15 -8.00,-13.60"/>
    </edge>
    <edge id=":Inter_10" function="internal">
        <lane id=":Inter_10_0" index="0" speed="13.89" length="27.20" shape="-13.60,-4.80 13.60,-4.80"/>
    </edge>
    <edge id=":Inter_11" function="internal">
        <lane id=":Inter_11_0" index="0" speed="10.36" length="24.51" shape="-13.60,-1.60 -6.95,-0.65 -2.20,2.20 0.65,6.95 1.60,13.60"/>
    </edge>

    <edge id="-E0" from="Inter" to="W" priority="-1">
        <lane id="-E0_0" index="0" speed="13.89" length="186.40" shape="-13.60,8.00 -200.00,8.00"/>
        <lane id="-E0_1" index="1" speed="13.89" length="186.40" shape="-13.60,4.80 -200.00,4.80"/>
        <lane id="-E0_2" index="2" speed="13.89" length="186.40" shape="-13.60,1.60 -200.00,1.60"/>
    </edge>
    <edge id="-E1" from="E" to="Inter" priority="-1">
        <lane id="-E1_0" index="0" speed="13.89" length="186.40" shape="200.00,8.00 13.60,8.00"/>
        <lane id="-E1_1" index="1" speed="13.89" length="186.40" shape="200.00,4.80 13.60,4.80"/>
        <lane id="-E1_2" index="2" speed="13.89" length="186.40" shape="200.00,1.60 13.60,1.60"/>
    </edge>
    <edge id="-E2" from="N" to="Inter" priority="-1">
        <lane id="-E2_0" index="0" speed="13.89" length="86.40" shape="-8.00,100.00 -8.00,13.60"/>
        <lane id="-E2_1" index="1" speed="13.89" length="86.40" shape="-4.80,100.00 -4.80,13.60"/>
        <lane id="-E2_2" index="2" speed="13.89" length="86.40" shape="-1.60,100.00 -1.60,13.60"/>
    </edge>
    <edge id="-E3" from="S" to="Inter" priority="-1">
        <lane id="-E3_0" index="0" speed="13.89" length="86.40" shape="8.00,-100.00 8.00,-13.60"/>
        <lane id="-E3_1" index="1" speed="13.89" length="86.40" shape="4.80,-100.00 4.80,-13.60"/>
        <lane id="-E3_2" index="2" speed="13.89" length="86.40" shape="1.60,-100.00 1.60,-13.60"/>
    </edge>
    <edge id="E0" from="W" to="Inter" priority="-1">
        <lane id="E0_0" index="0" speed="13.89" length="186.40" shape="-200.00,-8.00 -13.60,-8.00"/>
        <lane id="E0_1" index="1" speed="13.89" length="186.40" shape="-200.00,-4.80 -13.60,-4.80"/>
        <lane id="E0_2" index="2" speed="13.89" length="186.40" shape="-200.00,-1.60 -13.60,-1.60"/>
    </edge>
    <edge id="E1" from="Inter" to="E" priority="-1">
        <lane id="E1_0" index="0" speed="13.89" length="186.40" shape="13.60,-8.00 200.00,-8.00"/>
        <lane id="E1_1" index="1" speed="13.89" length="186.40" shape="13.60,-4.80 200.00,-4.80"/>
        <lane id="E1_2" index="2" speed="13.89" length="186.40" shape="13.60,-1.60 200.00,-1.60"/>
    </edge>
    <edge id="E2" from="Inter" to="N" priority="-1">
        <lane id="E2_0" index="0" speed="13.89" length="86.40" shape="8.00,13.60 8.00,100.00"/>
        <lane id="E2_1" index="1" speed="13.89" length="86.40" shape="4.80,13.60 4.80,100.00"/>
        <lane id="E2_2" index="2" speed="13.89" length="86.40" shape="1.60,13.60 1.60,100.00"/>
    </edge>
    <edge id="E3" from="Inter" to="S" priority="-1">
        <lane id="E3_0" index="0" speed="13.89" length="86.40" shape="-8.00,-13.60 -8.00,-100.00"/>
        <lane id="E3_1" index="1" speed="13.89" length="86.40" shape="-4.80,-13.60 -4.80,-100.00"/>
        <lane id="E3_2" index="2" speed="13.89" length="86.40" shape="-1.60,-13.60 -1.60,-100.00"/>
    </edge>

    <tlLogic id="Inter" type="actuated" programID="0" offset="0">
        <phase duration="33" state="GrrGrrGrrGGG" minDur="5" maxDur="50" name="1" next="1"/>
        <phase duration="5"  state="GrrGrrGrrGyy" name="1y" next="2 4 6"/>
        <phase duration="6"  state="GrrGGGGrrGrr" minDur="5" maxDur="50" name="2" next="3"/>
        <phase duration="5"  state="GrrGyyGrrGrr" name="2y" next="0 6 4"/>
        <phase duration="33" state="GGGGrrGrrGrr" minDur="5" maxDur="50" name="3" next="5"/>
        <phase duration="5"  state="GyyGrrGrrGrr" name="3y" next="0 2 6"/>
        <phase duration="6"  state="GrrGrrGGGGrr" minDur="5" maxDur="50" name="4" next="7"/>
        <phase duration="5"  state="GrrGrrGyyGrr" name="4y" next="2 0 4"/>
    </tlLogic>

    <junction id="E" type="dead_end" x="200.00" y="0.00" incLanes="E1_0 E1_1 E1_2" intLanes="" shape="200.00,0.00 200.00,-9.60 200.00,0.00"/>
    <junction id="Inter" type="traffic_light" x="0.00" y="0.00" incLanes="-E2_0 -E2_1 -E2_2 -E1_0 -E1_1 -E1_2 -E3_0 -E3_1 -E3_2 E0_0 E0_1 E0_2" intLanes=":Inter_0_0 :Inter_1_0 :Inter_2_0 :Inter_3_0 :Inter_4_0 :Inter_5_0 :Inter_6_0 :Inter_7_0 :Inter_8_0 :Inter_9_0 :Inter_10_0 :Inter_11_0" shape="-9.60,13.60 9.60,13.60 10.04,11.38 10.60,10.60 11.38,10.04 12.38,9.71 13.60,9.60 13.60,-9.60 11.38,-10.04 10.60,-10.60 10.04,-11.38 9.71,-12.38 9.60,-13.60 -9.60,-13.60 -10.04,-11.38 -10.60,-10.60 -11.38,-10.04 -12.38,-9.71 -13.60,-9.60 -13.60,9.60 -11.38,10.04 -10.60,10.60 -10.04,11.38 -9.71,12.38" customShape="1">
        <request index="0"  response="000000000000" foes="000000000000" cont="0"/>
        <request index="1"  response="000000000000" foes="110100010000" cont="0"/>
        <request index="2"  response="000010000000" foes="100010110000" cont="0"/>
        <request index="3"  response="000000000000" foes="000000000000" cont="0"/>
        <request index="4"  response="000010000110" foes="100010000110" cont="0"/>
        <request index="5"  response="010110000100" foes="010110000100" cont="0"/>
        <request index="6"  response="000000000000" foes="000000000000" cont="0"/>
        <request index="7"  response="000000000000" foes="010000110100" cont="0"/>
        <request index="8"  response="000000000010" foes="110000100010" cont="0"/>
        <request index="9"  response="000000000000" foes="000000000000" cont="0"/>
        <request index="10" response="000110000010" foes="000110100010" cont="0"/>
        <request index="11" response="000100010110" foes="000100010110" cont="0"/>
    </junction>
    <junction id="N" type="dead_end" x="0.00" y="100.00" incLanes="E2_0 E2_1 E2_2" intLanes="" shape="0.00,100.00 9.60,100.00 0.00,100.00"/>
    <junction id="S" type="dead_end" x="0.00" y="-100.00" incLanes="E3_0 E3_1 E3_2" intLanes="" shape="0.00,-100.00 -9.60,-100.00 0.00,-100.00"/>
    <junction id="W" type="dead_end" x="-200.00" y="0.00" incLanes="-E0_0 -E0_1 -E0_2" intLanes="" shape="-200.00,0.00 -200.00,9.60 -200.00,0.00"/>

    <connection from="-E1" to="E2" fromLane="0" toLane="0" via=":Inter_3_0" tl="Inter" linkIndex="3" dir="r" state="O"/>
    <connection from="-E1" to="-E0" fromLane="1" toLane="1" via=":Inter_4_0" tl="Inter" linkIndex="4" dir="s" state="o"/>
    <connection from="-E1" to="E3" fromLane="2" toLane="2" via=":Inter_5_0" tl="Inter" linkIndex="5" dir="l" state="o"/>
    <connection from="-E2" to="-E0" fromLane="0" toLane="0" via=":Inter_0_0" tl="Inter" linkIndex="0" dir="r" state="O"/>
    <connection from="-E2" to="E3" fromLane="1" toLane="1" via=":Inter_1_0" tl="Inter" linkIndex="1" dir="s" state="O"/>
    <connection from="-E2" to="E1" fromLane="2" toLane="2" via=":Inter_2_0" tl="Inter" linkIndex="2" dir="l" state="o"/>
    <connection from="-E3" to="E1" fromLane="0" toLane="0" via=":Inter_6_0" tl="Inter" linkIndex="6" dir="r" state="O"/>
    <connection from="-E3" to="E2" fromLane="1" toLane="1" via=":Inter_7_0" tl="Inter" linkIndex="7" dir="s" state="O"/>
    <connection from="-E3" to="-E0" fromLane="2" toLane="2" via=":Inter_8_0" tl="Inter" linkIndex="8" dir="l" state="o"/>
    <connection from="E0" to="E3" fromLane="0" toLane="0" via=":Inter_9_0" tl="Inter" linkIndex="9" dir="r" state="O"/>
    <connection from="E0" to="E1" fromLane="1" toLane="1" via=":Inter_10_0" tl="Inter" linkIndex="10" dir="s" state="o"/>
    <connection from="E0" to="E2" fromLane="2" toLane="2" via=":Inter_11_0" tl="Inter" linkIndex="11" dir="l" state="o"/>

    <connection from=":Inter_0" to="-E0" fromLane="0" toLane="0" dir="r" state="M"/>
    <connection from=":Inter_1" to="E3" fromLane="0" toLane="1" dir="s" state="M"/>
    <connection from=":Inter_2" to="E1" fromLane="0" toLane="2" dir="l" state="M"/>
    <connection from=":Inter_3" to="E2" fromLane="0" toLane="0" dir="r" state="M"/>
    <connection from=":Inter_4" to="-E0" fromLane="0" toLane="1" dir="s" state="M"/>
    <connection from=":Inter_5" to="E3" fromLane="0" toLane="2" dir="l" state="M"/>
    <connection from=":Inter_6" to="E1" fromLane="0" toLane="0" dir="r" state="M"/>
    <connection from=":Inter_7" to="E2" fromLane="0" toLane="1" dir="s" state="M"/>
    <connection from=":Inter_8" to="-E0" fromLane="0" toLane="2" dir="l" state="M"/>
    <connection from=":Inter_9" to="E3" fromLane="0" toLane="0" dir="r" state="M"/>
    <connection from=":Inter_10" to="E1" fromLane="0" toLane="1" dir="s" state="M"/>
    <connection from=":Inter_11" to="E2" fromLane="0" toLane="2" dir="l" state="M"/>

</net>
