<?xml version="1.0" encoding="UTF-8"?>

<!-- generated on 2025-06-12 18:48:59 by Eclipse SUMO netedit Version 1.23.1
-->

<routes xmlns:xsi="http://www.w3.org/2001/XMLSchema-instance" xsi:noNamespaceSchemaLocation="http://sumo.dlr.de/xsd/routes_file.xsd">
    <!-- Vehicles, persons and containers (sorted by depart) -->
    <flow id="EN" begin="0.00" departLane="0" from="-E2" to="-E3" end="900.00" period="exp(0.05)"/>
    <flow id="ES" begin="0.00" departLane="2" from="-E2" to="E4" end="900.00" period="exp(0.05)"/>
    <flow id="EW" begin="0.00" departLane="1" from="-E2" to="-E1" end="900.00" period="exp(0.05)"/>
    <flow id="NE" begin="0.00" departLane="2" from="E3" to="E2" end="3600.00" period="exp(0.05)"/>
    <flow id="NS" begin="0.00" departLane="1" from="E3" to="E4" end="3600.00" period="exp(0.05)"/>
    <flow id="NW" begin="0.00" departLane="0" from="E3" to="-E1" end="3600.00" period="exp(0.05)"/>
    <flow id="SE" begin="0.00" departLane="0" from="-E4" to="E2" end="3600.00" period="exp(0.05)"/>
    <flow id="SN" begin="0.00" departLane="1" from="-E4" to="-E3" end="3600.00" period="exp(0.05)"/>
    <flow id="SW" begin="0.00" departLane="2" from="-E4" to="-E1" end="3600.00" period="exp(0.05)"/>
    <flow id="WE" begin="0.00" departLane="1" from="E1" to="E2" end="900.00" period="exp(0.05)"/>
    <flow id="WN" begin="0.00" departLane="2" from="E1" to="-E3" end="900.00" period="exp(0.05)"/>
    <flow id="WS" begin="0.00" departLane="0" from="E1" to="E4" end="900.00" period="exp(0.05)"/>
    <flow id="EN1" begin="901.00" departLane="0" from="-E2" to="-E3" end="2700.00" period="exp(0.1)"/>
    <flow id="ES1" begin="901.00" departLane="2" from="-E2" to="E4" end="2700.00" period="exp(0.2)"/>
    <flow id="EW1" begin="901.00" departLane="1" from="-E2" to="-E1" end="2700.00" period="exp(1)"/>
    <flow id="WE1" begin="901.00" departLane="1" from="E1" to="E2" end="2700.00" period="exp(1)"/>
    <flow id="WN1" begin="901.00" departLane="2" from="E1" to="-E3" end="2700.00" period="exp(0.2)"/>
    <flow id="WS1" begin="901.00" departLane="0" from="E1" to="E4" end="2700.00" period="exp(0.1)"/>
    <flow id="EN2" begin="2701.00" departLane="0" from="-E2" to="-E3" end="3600.00" period="exp(0.05)"/>
    <flow id="ES2" begin="2701.00" departLane="2" from="-E2" to="E4" end="3600.00" period="exp(0.05)"/>
    <flow id="EW2" begin="2701.00" departLane="1" from="-E2" to="-E1" end="3600.00" period="exp(0.05)"/>
    <flow id="WE2" begin="2701.00" departLane="1" from="E1" to="E2" end="3600.00" period="exp(0.05)"/>
    <flow id="WN2" begin="2701.00" departLane="2" from="E1" to="-E3" end="3600.00" period="exp(0.05)"/>
    <flow id="WS2" begin="2701.00" departLane="0" from="E1" to="E4" end="3600.00" period="exp(0.05)"/>
</routes>
